@<TRIPOS>PROPANE
*****
 11 0 0 0 0
SMALL
GASTEIGER

@<TRIPOS>ATOM
      1 C          -8.2623    0.2680    0.0216 C.3     1  UNL1       -0.0655
      2 C          -7.0200    1.1427    0.0177 C.3     1  UNL1       -0.0588
      3 H          -8.2478   -0.4324    0.8626 H       1  UNL1        0.0230
      4 H          -8.3367   -0.3098   -0.9054 H       1  UNL1        0.0230
      5 H          -9.1612    0.8862    0.1090 H       1  UNL1        0.0230
      6 C          -5.7499    0.3126   -0.0607 C.3     1  UNL1       -0.0655
      7 H          -7.0002    1.7531    0.9275 H       1  UNL1        0.0260
      8 H          -7.0609    1.8298   -0.8346 H       1  UNL1        0.0260
      9 H          -5.6593   -0.3472    0.8081 H       1  UNL1        0.0230
     10 H          -4.8713    0.9648   -0.0845 H       1  UNL1        0.0230
     11 H          -5.7393   -0.3057   -0.9641 H       1  UNL1        0.0230
@<TRIPOS>BOND
     1     1     2    1
     2     1     3    1
     3     1     4    1
     4     1     5    1
     5     2     6    1
     6     2     7    1
     7     2     8    1
     8     6     9    1
     9     6    10    1
    10     6    11    1
