@<TRIPOS>MOLECULE
*****
 22 20 0 0 0
SMALL
GASTEIGER

@<TRIPOS>ATOM
      1 C          -7.6535    1.0712   -0.0106 C.3     1  UNL1       -0.0655
      2 C          -6.3605    1.8672   -0.0635 C.3     1  UNL1       -0.0588
      3 H          -7.6889    0.3251   -0.8110 H       1  UNL1        0.0230
      4 H          -8.5140    1.7372   -0.1284 H       1  UNL1        0.0230
      5 H          -7.7548    0.5519    0.9477 H       1  UNL1        0.0230
      6 C          -5.1426    0.9676    0.0633 C.3     1  UNL1       -0.0655
      7 H          -6.3545    2.6063    0.7455 H       1  UNL1        0.0260
      8 H          -6.3093    2.4184   -1.0087 H       1  UNL1        0.0260
      9 H          -5.1613    0.4110    1.0056 H       1  UNL1        0.0230
     10 H          -4.2258    1.5649    0.0390 H       1  UNL1        0.0230
     11 H          -5.1005    0.2475   -0.7603 H       1  UNL1        0.0230
     12 C           3.8251    4.9628    0.0079 C.3     2  UNL2       -0.0588
     13 C           2.5203    4.1844    0.0125 C.3     2  UNL2       -0.0655
     14 H           1.6690    4.8712    0.0495 H       2  UNL2        0.0230
     15 H           2.4610    3.5222    0.8822 H       2  UNL2        0.0230
     16 H           2.4251    3.5738   -0.8912 H       2  UNL2        0.0230
     17 C           5.0298    4.0378   -0.0281 C.3     2  UNL2       -0.0655
     18 H           3.8767    5.5938    0.9022 H       2  UNL2        0.0260
     19 H           3.8495    5.6283   -0.8621 H       2  UNL2        0.0260
     20 H           5.0499    3.3859    0.8510 H       2  UNL2        0.0230
     21 H           5.9558    4.6213   -0.0395 H       2  UNL2        0.0230
     22 H           5.0142    3.4074   -0.9230 H       2  UNL2        0.0230
@<TRIPOS>BOND
     1     1     2    1
     2     1     3    1
     3     1     4    1
     4     1     5    1
     5     2     6    1
     6     2     7    1
     7     2     8    1
     8     6     9    1
     9     6    10    1
    10     6    11    1
    11    12    13    1
    12    13    14    1
    13    13    15    1
    14    13    16    1
    15    12    17    1
    16    12    18    1
    17    12    19    1
    18    17    20    1
    19    17    21    1
    20    17    22    1
